psse/psse-converter/src/main/resources/IEEE_24_bus.xiidm
<?xml version="1.0" encoding="UTF-8"?>
<iidm:network xmlns:iidm="http://www.powsybl.org/schema/iidm/1_4" id="IEEE_24_bus" caseDate="2016-01-01T10:00:00.000+02:00" forecastDistance="0" sourceFormat="PSS/E">
    <iidm:substation id="S13">
        <iidm:voltageLevel id="VL1" nominalV="138.0" topologyKind="BUS_BREAKER">
            <iidm:busBreakerTopology>
                <iidm:bus id="B1" name="1           " v="138.0" angle="0.0"/>
            </iidm:busBreakerTopology>
            <iidm:generator id="B1-G1 " energySource="OTHER" minP="0.0" maxP="1000.0" voltageRegulatorOn="true" targetP="35.849" targetV="138.0" targetQ="180.357" bus="B1" connectableBus="B1">
                <iidm:regulatingTerminal id="B1-SwSH-1"/>
                <iidm:minMaxReactiveLimits minQ="-9900.0" maxQ="9900.0"/>
            </iidm:generator>
            <iidm:shunt id="B1-SwSH-1" sectionCount="2" voltageRegulatorOn="false" targetV="137.31" targetDeadband="1.3799999999999955" bus="B1" connectableBus="B1">
                <iidm:shuntNonLinearModel>
                    <iidm:section b="0.0" g="0.0"/>
                    <iidm:section b="120.0" g="0.0"/>
                </iidm:shuntNonLinearModel>
            </iidm:shunt>
        </iidm:voltageLevel>
    </iidm:substation>
    <iidm:substation id="S15">
        <iidm:voltageLevel id="VL2" nominalV="138.0" topologyKind="BUS_BREAKER">
            <iidm:busBreakerTopology>
                <iidm:bus id="B2" name="2           " v="137.70054" angle="0.0102"/>
            </iidm:busBreakerTopology>
            <iidm:generator id="B2-G1 " energySource="OTHER" minP="0.0" maxP="1000.0" voltageRegulatorOn="false" targetP="67.0" targetV="138.0" targetQ="0.0" bus="B2" connectableBus="B2">
                <iidm:regulatingTerminal id="B2-L1 "/>
                <iidm:minMaxReactiveLimits minQ="0.0" maxQ="0.0"/>
            </iidm:generator>
            <iidm:load id="B2-L1 " loadType="UNDEFINED" p0="97.0" q0="20.0" bus="B2" connectableBus="B2"/>
        </iidm:voltageLevel>
    </iidm:substation>
    <iidm:substation id="S6">
        <iidm:voltageLevel id="VL3" nominalV="138.0" topologyKind="BUS_BREAKER">
            <iidm:busBreakerTopology>
                <iidm:bus id="B3" name="3           " v="119.2251" angle="10.7472"/>
            </iidm:busBreakerTopology>
            <iidm:load id="B3-L1 " loadType="UNDEFINED" p0="90.0" q0="19.0" bus="B3" connectableBus="B3"/>
        </iidm:voltageLevel>
        <iidm:voltageLevel id="VL24" nominalV="230.0" topologyKind="BUS_BREAKER">
            <iidm:busBreakerTopology>
                <iidm:bus id="B24" name="24          " v="196.69830000000002" angle="24.7952"/>
            </iidm:busBreakerTopology>
        </iidm:voltageLevel>
        <iidm:twoWindingsTransformer id="T-24-3-1 " r="0.438012" x="15.977916" g="0.0" b="0.0" ratedU1="230.0" ratedU2="138.0" bus1="B24" connectableBus1="B24" voltageLevelId1="VL24" bus2="B3" connectableBus2="B3" voltageLevelId2="VL3">
            <iidm:currentLimits1 permanentLimit="1004.0874246776101"/>
            <iidm:currentLimits2 permanentLimit="1673.47904112935"/>
        </iidm:twoWindingsTransformer>
    </iidm:substation>
    <iidm:substation id="S18">
        <iidm:voltageLevel id="VL4" nominalV="138.0" topologyKind="BUS_BREAKER">
            <iidm:busBreakerTopology>
                <iidm:bus id="B4" name="4           " v="122.43498000000001" angle="-0.4167"/>
            </iidm:busBreakerTopology>
            <iidm:load id="B4-L1 " loadType="UNDEFINED" p0="74.0" q0="15.0" bus="B4" connectableBus="B4"/>
        </iidm:voltageLevel>
    </iidm:substation>
    <iidm:substation id="S3">
        <iidm:voltageLevel id="VL5" nominalV="138.0" topologyKind="BUS_BREAKER">
            <iidm:busBreakerTopology>
                <iidm:bus id="B5" name="5           " v="127.91634" angle="-0.2237"/>
            </iidm:busBreakerTopology>
            <iidm:load id="B5-L1 " loadType="UNDEFINED" p0="71.0" q0="14.0" bus="B5" connectableBus="B5"/>
        </iidm:voltageLevel>
        <iidm:voltageLevel id="VL9" nominalV="138.0" topologyKind="BUS_BREAKER">
            <iidm:busBreakerTopology>
                <iidm:bus id="B9" name="9           " v="115.26864" angle="4.9829"/>
            </iidm:busBreakerTopology>
            <iidm:load id="B9-L1 " loadType="UNDEFINED" p0="175.0" q0="36.0" bus="B9" connectableBus="B9"/>
        </iidm:voltageLevel>
        <iidm:voltageLevel id="VL10" nominalV="138.0" topologyKind="BUS_BREAKER">
            <iidm:busBreakerTopology>
                <iidm:bus id="B10" name="10          " v="121.73808000000001" angle="3.7178"/>
            </iidm:busBreakerTopology>
            <iidm:load id="B10-L1 " loadType="UNDEFINED" p0="100.0" q0="23.0" bus="B10" connectableBus="B10"/>
        </iidm:voltageLevel>
        <iidm:voltageLevel id="VL11" nominalV="230.0" topologyKind="BUS_BREAKER">
            <iidm:busBreakerTopology>
                <iidm:bus id="B11" name="11          " v="192.3835" angle="12.6275"/>
            </iidm:busBreakerTopology>
        </iidm:voltageLevel>
        <iidm:voltageLevel id="VL12" nominalV="230.0" topologyKind="BUS_BREAKER">
            <iidm:busBreakerTopology>
                <iidm:bus id="B12" name="12          " v="193.23680000000002" angle="11.7711"/>
            </iidm:busBreakerTopology>
        </iidm:voltageLevel>
        <iidm:twoWindingsTransformer id="T-5-10-1 " r="4.4448696" x="16.8291828" g="0.0" b="1.333753413148498E-4" ratedU1="138.0" ratedU2="138.0" bus1="B5" connectableBus1="B5" voltageLevelId1="VL5" bus2="B10" connectableBus2="B10" voltageLevelId2="VL10">
            <iidm:currentLimits1 permanentLimit="732.1470804940907"/>
            <iidm:currentLimits2 permanentLimit="732.1470804940907"/>
        </iidm:twoWindingsTransformer>
        <iidm:twoWindingsTransformer id="T-11-9-1 " r="0.438012" x="15.977916" g="0.0" b="0.0" ratedU1="230.0" ratedU2="138.0" bus1="B11" connectableBus1="B11" voltageLevelId1="VL11" bus2="B9" connectableBus2="B9" voltageLevelId2="VL9">
            <iidm:currentLimits1 permanentLimit="1004.0874246776101"/>
            <iidm:currentLimits2 permanentLimit="1673.47904112935"/>
        </iidm:twoWindingsTransformer>
        <iidm:twoWindingsTransformer id="T-9-12-1 " r="1.2167" x="44.3831" g="0.0" b="0.0" ratedU1="138.0" ratedU2="230.0" bus1="B9" connectableBus1="B9" voltageLevelId1="VL9" bus2="B12" connectableBus2="B12" voltageLevelId2="VL12">
            <iidm:currentLimits1 permanentLimit="1673.47904112935"/>
            <iidm:currentLimits2 permanentLimit="1004.0874246776101"/>
        </iidm:twoWindingsTransformer>
        <iidm:twoWindingsTransformer id="T-11-10-1 " r="0.438012" x="15.977916" g="0.0" b="0.0" ratedU1="230.0" ratedU2="138.0" bus1="B11" connectableBus1="B11" voltageLevelId1="VL11" bus2="B10" connectableBus2="B10" voltageLevelId2="VL10">
            <iidm:currentLimits1 permanentLimit="1004.0874246776101"/>
            <iidm:currentLimits2 permanentLimit="1673.47904112935"/>
        </iidm:twoWindingsTransformer>
        <iidm:twoWindingsTransformer id="T-12-10-1 " r="0.438012" x="15.977916" g="0.0" b="0.0" ratedU1="230.0" ratedU2="138.0" bus1="B12" connectableBus1="B12" voltageLevelId1="VL12" bus2="B10" connectableBus2="B10" voltageLevelId2="VL10">
            <iidm:currentLimits1 permanentLimit="1004.0874246776101"/>
            <iidm:currentLimits2 permanentLimit="1673.47904112935"/>
        </iidm:twoWindingsTransformer>
    </iidm:substation>
    <iidm:substation id="S2">
        <iidm:voltageLevel id="VL6" nominalV="138.0" topologyKind="BUS_BREAKER">
            <iidm:busBreakerTopology>
                <iidm:bus id="B6" name="6           " v="125.35506" angle="0.3902"/>
            </iidm:busBreakerTopology>
            <iidm:load id="B6-L1 " loadType="UNDEFINED" p0="68.0" q0="14.0" bus="B6" connectableBus="B6"/>
            <iidm:shunt id="B6-SwSH-1" sectionCount="2" voltageRegulatorOn="false" targetV="137.31" targetDeadband="1.3799999999999955" bus="B6" connectableBus="B6">
                <iidm:shuntNonLinearModel>
                    <iidm:section b="0.0" g="0.0"/>
                    <iidm:section b="100.0" g="0.0"/>
                </iidm:shuntNonLinearModel>
                <iidm:regulatingTerminal id="B6-L1 "/>
            </iidm:shunt>
        </iidm:voltageLevel>
    </iidm:substation>
    <iidm:substation id="S1">
        <iidm:voltageLevel id="VL7" nominalV="138.0" topologyKind="BUS_BREAKER">
            <iidm:busBreakerTopology>
                <iidm:bus id="B7" name="7           " v="109.94184000000001" angle="-0.5811"/>
            </iidm:busBreakerTopology>
            <iidm:generator id="B7-G1 " energySource="OTHER" minP="0.0" maxP="1000.0" voltageRegulatorOn="false" targetP="64.0" targetV="138.0" targetQ="0.0" bus="B7" connectableBus="B7">
                <iidm:regulatingTerminal id="B7-L1 "/>
                <iidm:minMaxReactiveLimits minQ="0.0" maxQ="0.0"/>
            </iidm:generator>
            <iidm:load id="B7-L1 " loadType="UNDEFINED" p0="62.0" q0="13.0" bus="B7" connectableBus="B7"/>
        </iidm:voltageLevel>
    </iidm:substation>
    <iidm:substation id="S4">
        <iidm:voltageLevel id="VL8" nominalV="230.0" topologyKind="BUS_BREAKER">
            <iidm:busBreakerTopology>
                <iidm:bus id="B8" name="8           " v="185.3363" angle="-0.8692"/>
            </iidm:busBreakerTopology>
            <iidm:load id="B8-L1 " loadType="UNDEFINED" p0="85.0" q0="18.0" bus="B8" connectableBus="B8"/>
        </iidm:voltageLevel>
    </iidm:substation>
    <iidm:substation id="S5">
        <iidm:voltageLevel id="VL13" nominalV="230.0" topologyKind="BUS_BREAKER">
            <iidm:busBreakerTopology>
                <iidm:bus id="B13" name="13          " v="192.5813" angle="15.4352"/>
            </iidm:busBreakerTopology>
            <iidm:generator id="B13-G1 " energySource="OTHER" minP="0.0" maxP="1000.0" voltageRegulatorOn="false" targetP="200.0" targetV="230.0" targetQ="0.0" bus="B13" connectableBus="B13">
                <iidm:regulatingTerminal id="B13-L1 "/>
                <iidm:minMaxReactiveLimits minQ="0.0" maxQ="0.0"/>
            </iidm:generator>
            <iidm:load id="B13-L1 " loadType="UNDEFINED" p0="130.0" q0="27.0" bus="B13" connectableBus="B13"/>
        </iidm:voltageLevel>
    </iidm:substation>
    <iidm:substation id="S7">
        <iidm:voltageLevel id="VL14" nominalV="230.0" topologyKind="BUS_BREAKER">
            <iidm:busBreakerTopology>
                <iidm:bus id="B14" name="14          " v="192.4525" angle="18.741"/>
            </iidm:busBreakerTopology>
            <iidm:generator id="B14-G1 " energySource="OTHER" minP="0.0" maxP="1000.0" voltageRegulatorOn="false" targetP="0.0" targetV="230.0" targetQ="0.0" bus="B14" connectableBus="B14">
                <iidm:regulatingTerminal id="B14-L1 "/>
                <iidm:minMaxReactiveLimits minQ="0.0" maxQ="0.0"/>
            </iidm:generator>
            <iidm:load id="B14-L1 " loadType="UNDEFINED" p0="92.0" q0="20.0" bus="B14" connectableBus="B14"/>
        </iidm:voltageLevel>
    </iidm:substation>
    <iidm:substation id="S8">
        <iidm:voltageLevel id="VL15" nominalV="230.0" topologyKind="BUS_BREAKER">
            <iidm:busBreakerTopology>
                <iidm:bus id="B15" name="15          " v="203.6466" angle="33.1896"/>
            </iidm:busBreakerTopology>
            <iidm:generator id="B15-G1 " energySource="OTHER" minP="0.0" maxP="1000.0" voltageRegulatorOn="false" targetP="274.0" targetV="230.0" targetQ="0.0" bus="B15" connectableBus="B15">
                <iidm:regulatingTerminal id="B15-L1 "/>
                <iidm:minMaxReactiveLimits minQ="0.0" maxQ="0.0"/>
            </iidm:generator>
            <iidm:load id="B15-L1 " loadType="UNDEFINED" p0="158.0" q0="32.0" bus="B15" connectableBus="B15"/>
        </iidm:voltageLevel>
    </iidm:substation>
    <iidm:substation id="S9">
        <iidm:voltageLevel id="VL16" nominalV="230.0" topologyKind="BUS_BREAKER">
            <iidm:busBreakerTopology>
                <iidm:bus id="B16" name="16          " v="198.3566" angle="27.0625"/>
            </iidm:busBreakerTopology>
            <iidm:generator id="B16-G1 " energySource="OTHER" minP="0.0" maxP="1000.0" voltageRegulatorOn="false" targetP="245.0" targetV="230.0" targetQ="0.0" bus="B16" connectableBus="B16">
                <iidm:regulatingTerminal id="B16-L1 "/>
                <iidm:minMaxReactiveLimits minQ="0.0" maxQ="0.0"/>
            </iidm:generator>
            <iidm:load id="B16-L1 " loadType="UNDEFINED" p0="100.0" q0="20.0" bus="B16" connectableBus="B16"/>
        </iidm:voltageLevel>
    </iidm:substation>
    <iidm:substation id="S10">
        <iidm:voltageLevel id="VL17" nominalV="230.0" topologyKind="BUS_BREAKER">
            <iidm:busBreakerTopology>
                <iidm:bus id="B17" name="17          " v="206.0685" angle="32.0375"/>
            </iidm:busBreakerTopology>
        </iidm:voltageLevel>
    </iidm:substation>
    <iidm:substation id="S11">
        <iidm:voltageLevel id="VL18" nominalV="230.0" topologyKind="BUS_BREAKER">
            <iidm:busBreakerTopology>
                <iidm:bus id="B18" name="18          " v="207.2875" angle="33.8753"/>
            </iidm:busBreakerTopology>
            <iidm:generator id="B18-G1 " energySource="OTHER" minP="0.0" maxP="1000.0" voltageRegulatorOn="false" targetP="144.0" targetV="230.0" targetQ="0.0" bus="B18" connectableBus="B18">
                <iidm:regulatingTerminal id="B18-L1 "/>
                <iidm:minMaxReactiveLimits minQ="0.0" maxQ="0.0"/>
            </iidm:generator>
            <iidm:load id="B18-L1 " loadType="UNDEFINED" p0="162.0" q0="34.0" bus="B18" connectableBus="B18"/>
        </iidm:voltageLevel>
    </iidm:substation>
    <iidm:substation id="S12">
        <iidm:voltageLevel id="VL19" nominalV="230.0" topologyKind="BUS_BREAKER">
            <iidm:busBreakerTopology>
                <iidm:bus id="B19" name="19          " v="195.9945" angle="23.7833"/>
            </iidm:busBreakerTopology>
            <iidm:load id="B19-L1 " loadType="UNDEFINED" p0="90.0" q0="18.0" bus="B19" connectableBus="B19"/>
        </iidm:voltageLevel>
    </iidm:substation>
    <iidm:substation id="S14">
        <iidm:voltageLevel id="VL20" nominalV="230.0" topologyKind="BUS_BREAKER">
            <iidm:busBreakerTopology>
                <iidm:bus id="B20" name="20          " v="195.4287" angle="22.3112"/>
            </iidm:busBreakerTopology>
            <iidm:load id="B20-L1 " loadType="UNDEFINED" p0="65.0" q0="13.0" bus="B20" connectableBus="B20"/>
        </iidm:voltageLevel>
    </iidm:substation>
    <iidm:substation id="S16">
        <iidm:voltageLevel id="VL21" nominalV="230.0" topologyKind="BUS_BREAKER">
            <iidm:busBreakerTopology>
                <iidm:bus id="B21" name="21          " v="209.6289" angle="35.6336"/>
            </iidm:busBreakerTopology>
            <iidm:generator id="B21-G1 " energySource="OTHER" minP="0.0" maxP="1000.0" voltageRegulatorOn="false" targetP="294.0" targetV="230.0" targetQ="0.0" bus="B21" connectableBus="B21">
                <iidm:minMaxReactiveLimits minQ="0.0" maxQ="0.0"/>
            </iidm:generator>
        </iidm:voltageLevel>
    </iidm:substation>
    <iidm:substation id="S17">
        <iidm:voltageLevel id="VL22" nominalV="230.0" topologyKind="BUS_BREAKER">
            <iidm:busBreakerTopology>
                <iidm:bus id="B22" name="22          " v="230.0" angle="37.4784"/>
            </iidm:busBreakerTopology>
            <iidm:generator id="B22-G1 " energySource="OTHER" minP="0.0" maxP="1000.0" voltageRegulatorOn="true" targetP="150.0" targetV="230.0" targetQ="198.998" bus="B22" connectableBus="B22">
                <iidm:minMaxReactiveLimits minQ="-9900.0" maxQ="9900.0"/>
            </iidm:generator>
        </iidm:voltageLevel>
    </iidm:substation>
    <iidm:substation id="S19">
        <iidm:voltageLevel id="VL23" nominalV="230.0" topologyKind="BUS_BREAKER">
            <iidm:busBreakerTopology>
                <iidm:bus id="B23" name="23          " v="195.5138" angle="22.0594"/>
            </iidm:busBreakerTopology>
            <iidm:generator id="B23-G1 " energySource="OTHER" minP="0.0" maxP="1000.0" voltageRegulatorOn="false" targetP="200.0" targetV="230.0" targetQ="0.0" bus="B23" connectableBus="B23">
                <iidm:minMaxReactiveLimits minQ="0.0" maxQ="0.0"/>
            </iidm:generator>
        </iidm:voltageLevel>
    </iidm:substation>
    <iidm:line id="L-1-2-1 " r="0.133308" x="0.2342412" g1="0.0" b1="1.7065742491073305E-6" g2="0.0" b2="1.7065742491073305E-6" bus1="B1" connectableBus1="B1" voltageLevelId1="VL1" bus2="B2" connectableBus2="B2" voltageLevelId2="VL2">
        <iidm:currentLimits1 permanentLimit="732.1470804940907"/>
        <iidm:currentLimits2 permanentLimit="732.1470804940907"/>
    </iidm:line>
    <iidm:line id="L-3-1-1 " r="10.319943600000002" x="40.209501599999996" g1="0.0" b1="1.6094307918504517E-4" g2="0.0" b2="1.6094307918504517E-4" bus1="B3" connectableBus1="B3" voltageLevelId1="VL3" bus2="B1" connectableBus2="B1" voltageLevelId2="VL1">
        <iidm:currentLimits1 permanentLimit="732.1470804940907"/>
        <iidm:currentLimits2 permanentLimit="732.1470804940907"/>
    </iidm:line>
    <iidm:line id="L-1-5-1 " r="4.271569199999999" x="16.168356000000003" g1="0.0" b1="6.40621718126444E-5" g2="0.0" b2="6.40621718126444E-5" bus1="B1" connectableBus1="B1" voltageLevelId1="VL1" bus2="B5" connectableBus2="B5" voltageLevelId2="VL5">
        <iidm:currentLimits1 permanentLimit="732.1470804940907"/>
        <iidm:currentLimits2 permanentLimit="732.1470804940907"/>
    </iidm:line>
    <iidm:line id="L-2-4-1 " r="6.4006884" x="24.243012" g1="0.0" b1="9.609325771896661E-5" g2="0.0" b2="9.609325771896661E-5" bus1="B2" connectableBus1="B2" voltageLevelId1="VL2" bus2="B4" connectableBus2="B4" voltageLevelId2="VL4">
        <iidm:currentLimits1 permanentLimit="732.1470804940907"/>
        <iidm:currentLimits2 permanentLimit="732.1470804940907"/>
    </iidm:line>
    <iidm:line id="L-2-6-1 " r="9.6438816" x="36.566384400000004" g1="0.0" b1="1.4624028565427433E-4" g2="0.0" b2="1.4624028565427433E-4" bus1="B2" connectableBus1="B2" voltageLevelId1="VL2" bus2="B6" connectableBus2="B6" voltageLevelId2="VL6">
        <iidm:currentLimits1 permanentLimit="732.1470804940907"/>
        <iidm:currentLimits2 permanentLimit="732.1470804940907"/>
    </iidm:line>
    <iidm:line id="L-3-9-1 " r="5.995051200000001" x="22.7023524" g1="0.0" b1="9.005461037597142E-5" g2="0.0" b2="9.005461037597142E-5" bus1="B3" connectableBus1="B3" voltageLevelId1="VL3" bus2="B9" connectableBus2="B9" voltageLevelId2="VL9">
        <iidm:currentLimits1 permanentLimit="732.1470804940907"/>
        <iidm:currentLimits2 permanentLimit="732.1470804940907"/>
    </iidm:line>
    <iidm:line id="L-4-9-1 " r="5.1266448" x="20.5275276" g1="0.0" b1="7.325141776937619E-5" g2="0.0" b2="7.325141776937619E-5" bus1="B4" connectableBus1="B4" voltageLevelId1="VL4" bus2="B9" connectableBus2="B9" voltageLevelId2="VL9">
        <iidm:currentLimits1 permanentLimit="732.1470804940907"/>
        <iidm:currentLimits2 permanentLimit="732.1470804940907"/>
    </iidm:line>
    <iidm:line id="L-10-6-1 " r="4.3077528" x="6.3473652000000005" g1="0.0" b1="3.420762444864524E-4" g2="0.0" b2="3.420762444864524E-4" bus1="B10" connectableBus1="B10" voltageLevelId1="VL10" bus2="B6" connectableBus2="B6" voltageLevelId2="VL6">
        <iidm:currentLimits1 permanentLimit="732.1470804940907"/>
        <iidm:currentLimits2 permanentLimit="732.1470804940907"/>
    </iidm:line>
    <iidm:line id="L-7-8-1 " r="8.53806" x="32.28487" g1="0.0" b1="1.6918714555765597E-5" g2="0.0" b2="1.6918714555765597E-5" bus1="B7" connectableBus1="B7" voltageLevelId1="VL7" bus2="B8" connectableBus2="B8" voltageLevelId2="VL8">
        <iidm:currentLimits1 permanentLimit="732.1470804940907"/>
        <iidm:currentLimits2 permanentLimit="439.2882482964544"/>
    </iidm:line>
    <iidm:line id="L-8-9-1 " r="8.063229600000001" x="31.388320799999995" g1="0.0" b1="1.254988447805083E-4" g2="0.0" b2="1.254988447805083E-4" bus1="B8" connectableBus1="B8" voltageLevelId1="VL8" bus2="B9" connectableBus2="B9" voltageLevelId2="VL9">
        <iidm:currentLimits1 permanentLimit="439.2882482964544"/>
        <iidm:currentLimits2 permanentLimit="732.1470804940907"/>
    </iidm:line>
    <iidm:line id="L-8-10-1 " r="8.063229600000001" x="31.388320799999995" g1="0.0" b1="1.254988447805083E-4" g2="0.0" b2="1.254988447805083E-4" bus1="B8" connectableBus1="B8" voltageLevelId1="VL8" bus2="B10" connectableBus2="B10" voltageLevelId2="VL10">
        <iidm:currentLimits1 permanentLimit="439.2882482964544"/>
        <iidm:currentLimits2 permanentLimit="732.1470804940907"/>
    </iidm:line>
    <iidm:line id="L-11-13-1 " r="3.0840699999999996" x="25.10634" g1="0.0" b1="9.064272211720226E-5" g2="0.0" b2="9.064272211720226E-5" bus1="B11" connectableBus1="B11" voltageLevelId1="VL11" bus2="B13" connectableBus2="B13" voltageLevelId2="VL13">
        <iidm:currentLimits1 permanentLimit="1255.1092808470125"/>
        <iidm:currentLimits2 permanentLimit="1255.1092808470125"/>
    </iidm:line>
    <iidm:line id="L-11-14-1 " r="2.7137700000000002" x="22.069879999999998" g1="0.0" b1="7.967863894139886E-5" g2="0.0" b2="7.967863894139886E-5" bus1="B11" connectableBus1="B11" voltageLevelId1="VL11" bus2="B14" connectableBus2="B14" voltageLevelId2="VL14">
        <iidm:currentLimits1 permanentLimit="1255.1092808470125"/>
        <iidm:currentLimits2 permanentLimit="1255.1092808470125"/>
    </iidm:line>
    <iidm:line id="L-12-13-1 " r="3.0840699999999996" x="25.1804" g1="0.0" b1="9.064272211720226E-5" g2="0.0" b2="9.064272211720226E-5" bus1="B12" connectableBus1="B12" voltageLevelId1="VL12" bus2="B13" connectableBus2="B13" voltageLevelId2="VL13">
        <iidm:currentLimits1 permanentLimit="1255.1092808470125"/>
        <iidm:currentLimits2 permanentLimit="1255.1092808470125"/>
    </iidm:line>
    <iidm:line id="L-12-23-1 " r="6.474959999999999" x="51.016760000000005" g1="0.0" b1="1.8752362948960304E-4" g2="0.0" b2="1.8752362948960304E-4" bus1="B12" connectableBus1="B12" voltageLevelId1="VL12" bus2="B23" connectableBus2="B23" voltageLevelId2="VL23">
        <iidm:currentLimits1 permanentLimit="1255.1092808470125"/>
        <iidm:currentLimits2 permanentLimit="1255.1092808470125"/>
    </iidm:line>
    <iidm:line id="L-23-13-1 " r="5.6074" x="45.72147" g1="0.0" b1="1.655954631379962E-4" g2="0.0" b2="1.655954631379962E-4" bus1="B23" connectableBus1="B23" voltageLevelId1="VL23" bus2="B13" connectableBus2="B13" voltageLevelId2="VL13">
        <iidm:currentLimits1 permanentLimit="1255.1092808470125"/>
        <iidm:currentLimits2 permanentLimit="1255.1092808470125"/>
    </iidm:line>
    <iidm:line id="L-14-16-1 " r="2.52333" x="20.54636" g1="0.0" b1="7.419659735349716E-5" g2="0.0" b2="7.419659735349716E-5" bus1="B14" connectableBus1="B14" voltageLevelId1="VL14" bus2="B16" connectableBus2="B16" voltageLevelId2="VL16">
        <iidm:currentLimits1 permanentLimit="1255.1092808470125"/>
        <iidm:currentLimits2 permanentLimit="1255.1092808470125"/>
    </iidm:line>
    <iidm:line id="L-16-15-1 " r="1.12148" x="91.35301000000001" g1="0.0" b1="3.298676748582231E-5" g2="0.0" b2="3.298676748582231E-5" bus1="B16" connectableBus1="B16" voltageLevelId1="VL16" bus2="B15" connectableBus2="B15" voltageLevelId2="VL15">
        <iidm:currentLimits1 permanentLimit="1255.1092808470125"/>
        <iidm:currentLimits2 permanentLimit="1255.1092808470125"/>
    </iidm:line>
    <iidm:line id="L-15-21-1 " r="3.2110299999999996" x="25.91571" g1="0.0" b1="9.508506616257088E-5" g2="0.0" b2="9.508506616257088E-5" bus1="B15" connectableBus1="B15" voltageLevelId1="VL15" bus2="B21" connectableBus2="B21" voltageLevelId2="VL21">
        <iidm:currentLimits1 permanentLimit="1255.1092808470125"/>
        <iidm:currentLimits2 permanentLimit="1255.1092808470125"/>
    </iidm:line>
    <iidm:line id="L-21-15-2 " r="3.2110299999999996" x="25.91571" g1="0.0" b1="9.508506616257088E-5" g2="0.0" b2="9.508506616257088E-5" bus1="B21" connectableBus1="B21" voltageLevelId1="VL21" bus2="B15" connectableBus2="B15" voltageLevelId2="VL15">
        <iidm:currentLimits1 permanentLimit="1255.1092808470125"/>
        <iidm:currentLimits2 permanentLimit="1255.1092808470125"/>
    </iidm:line>
    <iidm:line id="L-15-24-1 " r="3.3961800000000006" x="27.43923" g1="0.0" b1="1.0075614366729679E-4" g2="0.0" b2="1.0075614366729679E-4" bus1="B15" connectableBus1="B15" voltageLevelId1="VL15" bus2="B24" connectableBus2="B24" voltageLevelId2="VL24">
        <iidm:currentLimits1 permanentLimit="1255.1092808470125"/>
        <iidm:currentLimits2 permanentLimit="1255.1092808470125"/>
    </iidm:line>
    <iidm:line id="L-16-17-1 " r="1.68222" x="13.701099999999999" g1="0.0" b1="4.9432892249527406E-5" g2="0.0" b2="4.9432892249527406E-5" bus1="B16" connectableBus1="B16" voltageLevelId1="VL16" bus2="B17" connectableBus2="B17" voltageLevelId2="VL17">
        <iidm:currentLimits1 permanentLimit="1255.1092808470125"/>
        <iidm:currentLimits2 permanentLimit="1255.1092808470125"/>
    </iidm:line>
    <iidm:line id="L-16-19-1 " r="1.49707" x="12.17758" g1="0.0" b1="4.395085066162571E-5" g2="0.0" b2="4.395085066162571E-5" bus1="B16" connectableBus1="B16" voltageLevelId1="VL16" bus2="B19" connectableBus2="B19" voltageLevelId2="VL19">
        <iidm:currentLimits1 permanentLimit="1255.1092808470125"/>
        <iidm:currentLimits2 permanentLimit="1255.1092808470125"/>
    </iidm:line>
    <iidm:line id="L-17-18-1 " r="0.9363300000000001" x="7.61231" g1="0.0" b1="2.7504725897920606E-5" g2="0.0" b2="2.7504725897920606E-5" bus1="B17" connectableBus1="B17" voltageLevelId1="VL17" bus2="B18" connectableBus2="B18" voltageLevelId2="VL18">
        <iidm:currentLimits1 permanentLimit="1255.1092808470125"/>
        <iidm:currentLimits2 permanentLimit="1255.1092808470125"/>
    </iidm:line>
    <iidm:line id="L-17-22-1 " r="6.48025" x="55.68782999999999" g1="0.0" b1="2.0E-4" g2="0.0" b2="2.0E-4" bus1="B17" connectableBus1="B17" voltageLevelId1="VL17" bus2="B22" connectableBus2="B22" voltageLevelId2="VL22">
        <iidm:currentLimits1 permanentLimit="1255.1092808470125"/>
        <iidm:currentLimits2 permanentLimit="1255.1092808470125"/>
    </iidm:line>
    <iidm:line id="L-18-21-1 " r="1.7509899999999998" x="13.72755" g1="0.0" b1="5.0378071833648396E-5" g2="0.0" b2="5.0378071833648396E-5" bus1="B18" connectableBus1="B18" voltageLevelId1="VL18" bus2="B21" connectableBus2="B21" voltageLevelId2="VL21">
        <iidm:currentLimits1 permanentLimit="1255.1092808470125"/>
        <iidm:currentLimits2 permanentLimit="1255.1092808470125"/>
    </iidm:line>
    <iidm:line id="L-18-21-2 " r="1.7509899999999998" x="13.72755" g1="0.0" b1="5.0378071833648396E-5" g2="0.0" b2="5.0378071833648396E-5" bus1="B18" connectableBus1="B18" voltageLevelId1="VL18" bus2="B21" connectableBus2="B21" voltageLevelId2="VL21">
        <iidm:currentLimits1 permanentLimit="1255.1092808470125"/>
        <iidm:currentLimits2 permanentLimit="1255.1092808470125"/>
    </iidm:line>
    <iidm:line id="L-19-20-1 " r="2.6714499999999997" x="20.96956" g1="0.0" b1="7.693761814744802E-5" g2="0.0" b2="7.693761814744802E-5" bus1="B19" connectableBus1="B19" voltageLevelId1="VL19" bus2="B20" connectableBus2="B20" voltageLevelId2="VL20">
        <iidm:currentLimits1 permanentLimit="1255.1092808470125"/>
        <iidm:currentLimits2 permanentLimit="1255.1092808470125"/>
    </iidm:line>
    <iidm:line id="L-19-20-2 " r="2.6714499999999997" x="20.96956" g1="0.0" b1="7.693761814744802E-5" g2="0.0" b2="7.693761814744802E-5" bus1="B19" connectableBus1="B19" voltageLevelId1="VL19" bus2="B20" connectableBus2="B20" voltageLevelId2="VL20">
        <iidm:currentLimits1 permanentLimit="1255.1092808470125"/>
        <iidm:currentLimits2 permanentLimit="1255.1092808470125"/>
    </iidm:line>
    <iidm:line id="L-20-23-1 " r="1.46004" x="11.442269999999999" g1="0.0" b1="4.196597353497165E-5" g2="0.0" b2="4.196597353497165E-5" bus1="B20" connectableBus1="B20" voltageLevelId1="VL20" bus2="B23" connectableBus2="B23" voltageLevelId2="VL23">
        <iidm:currentLimits1 permanentLimit="1255.1092808470125"/>
        <iidm:currentLimits2 permanentLimit="1255.1092808470125"/>
    </iidm:line>
    <iidm:line id="L-20-23-2 " r="1.46004" x="11.442269999999999" g1="0.0" b1="4.196597353497165E-5" g2="0.0" b2="4.196597353497165E-5" bus1="B20" connectableBus1="B20" voltageLevelId1="VL20" bus2="B23" connectableBus2="B23" voltageLevelId2="VL23">
        <iidm:currentLimits1 permanentLimit="1255.1092808470125"/>
        <iidm:currentLimits2 permanentLimit="1255.1092808470125"/>
    </iidm:line>
    <iidm:line id="L-21-22-1 " r="4.38541" x="35.808009999999996" g1="0.0" b1="1.2920604914933836E-4" g2="0.0" b2="1.2920604914933836E-4" bus1="B21" connectableBus1="B21" voltageLevelId1="VL21" bus2="B22" connectableBus2="B22" voltageLevelId2="VL22">
        <iidm:currentLimits1 permanentLimit="1255.1092808470125"/>
        <iidm:currentLimits2 permanentLimit="1255.1092808470125"/>
    </iidm:line>
</iidm:network>
